Vs 1 3 0 sin(0 115.000000 50 0 0 90)
Dtl 1 2 Default
Dtr 3 2 Default
Dbl 0 3 Default
Dbr 0 1 Default
R1 2 0 3000000
C 2 0 0.003
R2 2 5 2588500
Dr1 5 0 Default_n
.model Default D
.model Default_n D (n=21)
