***Envelope detector***
R1 2 0 10k
C 2 0 10u

***Voltage regulator***
R2 2 5 1k
Dr1 5 0 Default_n
Dr2 5 0 Default_n

.model Default D
.model Default_n D (n=19)
