***Fonte dependente
Vs 1 3 0 sin(0 15 50 0 0 90)

***Full Wave Rectifier***
Dtl 1 2 Default
Dtr 3 2 Default
Dbl 0 3 Default
Dbr 0 1 Default

***Envelope detector***
R1 2 0 10k
C 2 0 10u

***Voltage regulator***
R2 2 5 1k
Dr1 5 0 Default_n
Dr2 5 0 Default_n

.model Default D
.model Default_n D (n=19)
