Vs 1 3 0 sin(0 41.970803 50 0 0 90)
Dtl 1 2 Default
Dtr 3 2 Default
Dbl 0 3 Default
Dbr 0 1 Default
R1 2 0 100000
C 2 0 0.0001
R2 2 5 120000
Dr1 5 0 Default_n
Dr2 5 0 Default_n
.model Default D
.model Default_n D (n=20)
